<?xml version="1.0" encoding="UTF-8"?>

<!-- generated on 2026-04-14 20:57:54.725418 by Eclipse SUMO randomTrips.py v1_26_0+0000-fa7df22d7f1
<configuration>
    <net-file value="sumo_files/maarif.net.xml"/>
    <output-trip-file value="sumo_files/maarif.trips.xml"/>
    <route-file value="sumo_files/maarif.rou.xml"/>
    <fringe-factor value="3"/>
    <min-distance value="80.0"/>
    <period value="2.0"/>
</configuration>
-->

<!-- generated on 2026-04-14T20:57:53.613540+01:00 by Eclipse SUMO duarouter 1.26.0
<duarouterConfiguration xmlns:xsi="http://www.w3.org/2001/XMLSchema-instance" xsi:noNamespaceSchemaLocation="http://sumo.dlr.de/xsd/duarouterConfiguration.xsd">

    <input>
        <net-file value="sumo_files/maarif.net.xml"/>
        <route-files value="sumo_files/maarif.trips.xml"/>
    </input>

    <output>
        <output-file value="sumo_files/maarif.rou.xml"/>
        <alternatives-output value="NUL"/>
    </output>

    <time>
        <begin value="0.0"/>
        <end value="3600.0"/>
    </time>

    <report>
        <no-warnings value="true"/>
        <ignore-errors value="true"/>
        <no-step-log value="true"/>
    </report>

</duarouterConfiguration>
-->

<routes xmlns:xsi="http://www.w3.org/2001/XMLSchema-instance" xsi:noNamespaceSchemaLocation="http://sumo.dlr.de/xsd/routes_file.xsd">
    <vehicle id="0" depart="0.00">
        <route edges="34882008#0 34882008#1 34882008#2 -215092802#0 34882152#2 34882152#3 34882152#4 1318479273#4 1318479273#5 579211958#0 38785078#0 38785078#2 38785078#3 38785078#4 38785078#5 1371367096#0 143005702#7 -38785113#3 -38785113#2 -1368226516"/>
    </vehicle>
    <vehicle id="1" depart="2.00">
        <route edges="-59541063#7 579407246 -579407017#0 744984905#1 579522178 584021286#0 584021286#1 584022369#2 584022369#3 584022369#4 -579517518"/>
    </vehicle>
    <vehicle id="2" depart="4.00">
        <route edges="38518223#1 97667270#1 38518224#3 38518224#4 -1371900285 1371900276 1371900286 1454259850 1454259847 1454259857#0 1454259845#0 -202733808 -202733838 202733886 1387286080#2 1245413408#0 1245413408#9 1245413408#10 1444483466#0 1444483466#1 1433305207#0 1433305207#1 1245413406 1433305208#0 1444483468#0 1444483468#1 1444474425#0 1453810092#4 1453810093#0 38518120#4 38706612#0 38706612#1 38706612#2 38706612#3 -38503002#1 38503002#1"/>
    </vehicle>
    <vehicle id="3" depart="6.00">
        <route edges="579231077#0 59541077#1 338675698#10 338675698#11 520730557#0 149539175#0 149539175#1 421572444#0 421572444#1 420918538 512509918#0 1446253328#0 1446253328#1 421572485 423645191 38704977 1446253330 202733874#0 202733874#1 202733874#2 202733874#4 202733874#6 202733874#7 1426144995#5 1426144995#6 1426144995#1 1336816702#0 1336816702#1 -208443856#3 -208443856#2"/>
    </vehicle>
    <vehicle id="4" depart="8.00">
        <route edges="1444483471#1 338675698#0 338675698#2 338675698#3 338675698#5 338675698#7 338675698#10 338675698#11 -38517884#34 -38517884#32 -38517884#31 -38517884#30 -38517884#27 -38517884#19 -38517884#12 520401694#3 1368230240#0 339183558 1339182206#0 1339182206#1 1316247796#0 1316247796#1 1316247797 514933199#0 514933199#1 1368343178#0 1396120987 1368343179 1368343180#0 1368343181#0 1396120988 1368226769#0 1368226769#1 514933198#0 514933198#1 -1339182204#1 -1339182204#0 -1368343182"/>
    </vehicle>
    <vehicle id="5" depart="10.00">
        <route edges="-514934194#0 -1339182216 -1452997236#1 -1339182215#0 -1364120124 -1364120126#1 -1364120127 -1364120128#1 -1364120131#1 -1364120130#1 -1371676929 1340602107 852390143#0 852390143#2 852390143#3 1444227375#0 -1371385761#0 -1444227371 -584930689 584930690#0 584930690#1 1055765304 1390597378#0 1390597377 423702947 1390597370 1390597373 248378000#0 248378000#1 248378000#2 248378000#6 248378000#7 1443979366#0 1443979366#1 1443979360 526279652#0 214262735#3 214262735#4"/>
    </vehicle>
    <vehicle id="6" depart="12.00">
        <route edges="-1368226508 -1368226509 1421444749 174297880#1 1391722070 -1366709501#1 -1318062177#1 -421566992#3 -421566992#0 1111202194 1112150720 514933198#0 1339182203 174297850#0 174297850#1 174297850#2 174297850#3 174297850#4 174297850#5 590584177#0 1426161671 1425801163#0 579513653#0 579513653#3 -584022369#5 -584022369#4 -584022369#3 -584022369#2 -584022369#1 514424287#3 514424287#4 -514424287#4"/>
    </vehicle>
    <vehicle id="7" depart="14.00">
        <route edges="34882325#12 34882325#13 34882325#14 215092802#0 215092800 1371900280 1371900281 1371900282 1444227374 97667265#0 97667265#1 97667265#2 29893132#0 29893132#1 215664231#0 215664231#1 215664231#2 215664231#3 215664231#4"/>
    </vehicle>
    <vehicle id="8" depart="16.00">
        <route edges="-520401065#4 520401065#3 1396120987 1368343179 1368343180#0 1368343181#0 1396120988 1368226769#0 1368226769#1 514933198#0 514933198#1 -1339182204#1 -1339182204#0 -1368343182 -1368343183#6 -1368343183#5 -1368343183#1 -176157393#4 -176157393#2 1318479273#2 1318479273#3 1318479273#4 215092801 1390278528 -1364120130#1 -1371676929 1340602107 852390143#0 852390143#2 852390143#3 1444227375#0 -1371385761#0 -1444227371 -584930689 584930690#0 584930690#1 1055765304 1390597378#0 1390597377 423702947 1390597370 1390597373 248378000#0 248378000#1 248378000#2 28944193#1"/>
    </vehicle>
    <vehicle id="9" depart="18.00">
        <route edges="421569509#2 421569509#3 421569509#4 421569509#5 521292051#0 202733867#1 1336816703#0 1336816703#2 1336816703#3 1336816703#4 1426144995#3 421572467#0 421572467#1 421572467#2 421572467#3 421572467#5 421572467#6 421572467#7 421572467#8 421572467#10 421572467#11 421572467#12 1446253331#0 421572478 421572488#0 421572488#1 421685204 421685183 1446253327 149539153#0 149539153#1 519371475#0 519371475#1 421572457 149539147 420918583 149539151#0 149539151#2 149539151#4 149539151#6 149539151#7 149539151#8 149539151#9 149539151#11 1316247792 1339182211#0 1339182211#1 1316247797 514933199#0 514933199#1 1368343178#0 1396120987 1368343179 1368343180#0 1368343181#0 1396120988 1368226769#0 1368226769#1 514933198#0 514933198#1 514933198#2 421566992#0 421566992#1 1364120121#1 1368224972 1364120119 1368224970 1328516448#1 1340733195#2 1340733196#0 1340733196#1 1340733196#2 1340733196#3 1340733198 1340733195#0 1340733195#1 -1328516448#1"/>
    </vehicle>
    <vehicle id="10" depart="20.00">
        <route edges="421569503#0 421569503#1 421569503#2 1336816703#0 1336816703#2 1336816703#3 1336816703#4 1426144995#3 1426144995#4 1426144995#5 202733818#0 202733818#1 202733843#3 202733843#9 590874446#0 1428686203 1426257829#0 1426257829#1 1426257831 590874454 739626457 -579703664#5 -579703664#4 -579703664#1 -579703664#0 -1453810094#1 1453810092#2 1453810092#3 -1444474425#1 -1444483468#1 -1444483468#0 1433305208#1 1433305206 1433305207#0 -1444483463#1 -1444483463#0 -214485139#1 -214485139#0 -1444483470#1 -1444483470#0 1347892938#1 1347892939#0 -1444483472#1 -1444483472#0 -1444512986 -1444512987#1 1444512984 38518022#0 38518022#1 38518022#2"/>
    </vehicle>
    <vehicle id="11" depart="22.00">
        <route edges="1368340730#0 417889493#0 176158499#1 215084458#0 36914861#5 1339182208#0 1339182208#1 1316247793#2 1316247796#0 422867202 1339182210#0 1339182210#1 422855908#0 422855908#1 422855908#3 422855908#5 422855908#7 422855908#8 422855908#10 422855908#12 422855908#13 422855908#16 422855910 420918590 420918538 512509918#0 1446253328#0 1446253328#1 421572485 423645191 421572447 421572488#0 1446253324 59541063#0 -38518032#2 -38518032#1 -584021285#3 -584021285#2 -584021287#6 -38518030#9"/>
    </vehicle>
    <vehicle id="12" depart="24.00">
        <route edges="59541077#0 59541077#1 338675698#10 338675698#11 520730557#0 149539175#0 149539175#1 421572444#0 421572444#1 420918538 421572458 421572457 149539155#0 149539155#1 -1454259845#1 1454259858#0 -1454259847 -1454259850 -1371900286 -1371900276 1371900285 1371900283 1371900284#0 1371900284#1 1371900280"/>
    </vehicle>
    <vehicle id="13" depart="26.00">
        <route edges="-208443856#2 208443856#2 208443856#3 1336816702#2 421572449#3 110470498#1 110470498#4 110470498#5 420659192 521286930 1445965799 -1055798628 -514424287#7 36363785 97667889#2 -214875505#1 -214875505#0"/>
    </vehicle>
    <vehicle id="14" depart="28.00">
        <route edges="4406538#2 28944194#1 248378000#2 248378000#6 248378000#7 1443979366#0 1443979366#1 1443979363 97669074#1 420918561#3 114311910#0 114311910#1 420918581 -1371167860 8013563#0 8013563#1 8013563#2 -29893132#5 30341758#3"/>
    </vehicle>
    <vehicle id="15" depart="30.00">
        <route edges="421569503#2 1336816703#0 1336816703#2 1336816703#3 1336816703#4 1426144995#3 421572467#0 421572467#1 421572467#2 421572467#3 421572467#5 421572467#6 421572467#7 421572467#8 421572467#10 421572467#11 421572467#12 1446253331#0 421572478 421572488#0 421572488#1 1446253325 203937551 243446016#0 243446016#2 243446016#4 1426161669 1446253321#1 1426161668#0 1426161668#2 1425801143#0 203937566#1 38518223#0 38518223#1 38518223#2 418714051 38518220#1"/>
    </vehicle>
    <vehicle id="16" depart="32.00">
        <route edges="214485591#1 -214485591#1 -214485591#0 -1444483461#1 -1444483461#0 -1445679846#1 422855904#6 422855904#8 1446253333#0 421572478 421572488#0 421572488#1 1446253325 203937551 243446016#0 243446016#2 243446016#4 1426161669 1446253321#1 1426161668#0 1426161668#2 1425801143#0 203937566#1 1371900285 1371900283 1371900284#0 1371900284#1 1371900280 1371900281 1371900282 1444227374 97667265#0 97667265#1 97667265#2 29893132#0 29893132#1 29893132#3 29893132#4 29893132#5 8013563#3 8013563#4 8013563#5"/>
    </vehicle>
    <vehicle id="17" depart="34.00">
        <route edges="1425630966 1425801144#1 1425801143#4 1425801143#5 1452992952 1452992949#0 521545592 215666285#0 215666285#1 215666285#2 215666285#3 215666285#4 215666285#5"/>
    </vehicle>
    <vehicle id="18" depart="36.00">
        <route edges="422535850#5 422535850#6 422535850#7 422535850#8 38518214#12 38518214#13 422855908#5 422855908#7 422855908#8 422855908#10 422855908#12 422855908#13 422855908#16 422855910 420918590 420918538 421572458 421572457 149539155#0 149539155#1 -1454259845#1 1454259858#0 -1454259847 -1454259850 97668119#0 97668119#1 1426161668#2 1425801143#0 1425801143#1 1425801143#4 1425801143#5 1452992952 1452992949#0 -30343823#1 -30343823#0 -1390597376#1 1390597376#1 30343823#0"/>
    </vehicle>
    <vehicle id="19" depart="38.00">
        <route edges="514424287#6 514424287#7 1055798628 421685207#0 590614182#1 420659191#0 420659191#3 515074564#0 515074564#1 515074564#3 -521292051#1 286528674#0 286576330"/>
    </vehicle>
    <vehicle id="20" depart="40.00">
        <route edges="38518024#3 584022369#2 584022369#3 584022369#4 -59541109 589938800#0 589938800#1 97668127#2 97668127#3 97668117 97668125 1445965796 203937541 1445965795 1055765304 1390597378#0 -1390597379#0"/>
    </vehicle>
    <vehicle id="21" depart="42.00">
        <route edges="-575575271 203937524#2 243446010#1 30343824#2 -1371900280 -1371900284#1 38785100 34882152#2 34882152#3 34882152#4 1318479273#4 1318479273#5 1318479273#1 176157393#0 176157393#3 1368343183#0 1368343183#2 1368343183#6 1368343182 1339182204#0 1339182204#1 514933198#2 421566992#0 421566992#1 1364120121#1 1368224972 1364120119 592204008#0 1368226507 1328516446#1"/>
    </vehicle>
    <vehicle id="22" depart="44.00">
        <route edges="-1454259845#1 1454259858#0 590584177#0 1426161671 1425801163#0 1426161672#2 243446015#0 243446015#3 243446015#5 1446253326#0 1446253326#1 421685183 59541091 421572485 423645191 38704977 1446253332 421572454#0 421572454#1 421572454#3 421572454#6 421572454#7 590874453#0 -579703664#5"/>
    </vehicle>
    <vehicle id="23" depart="46.00">
        <route edges="339220625#2 339220625#3 -1368343179 -1396120987 -1368343178#1 -514933199#2 -514933199#0 1316247793#0 1316247793#1 1316247793#2 -1339182206#1 -1339182206#0 -339183558 -1365663323 -1365663322 38517884#5 38517884#13 1421674160#12"/>
    </vehicle>
    <vehicle id="24" depart="48.00">
        <route edges="1390597381 423702931#0 423702931#2 423702931#3 584930689 1444227371 1371385761#0 -1371900278 -1371900281 -1371900280 -1371900284#1 -1371900284#0 -1371900283 -1371900285 1371900276 1371900286 1454259850 1454259847 1454259857#0 1454259845#0 250426638 1454259846#0 1454259846#1 1454259846#2 1454259846#3 1454259846#4 420918583 422855901 422855910 149539158 1445341540#0 421572469#0 421572469#1 -520730557#2 -338675698#13 -338675698#10 -338675698#9 -338675698#6 -214485138#1 -214485138#0 -575575265"/>
    </vehicle>
    <vehicle id="25" depart="50.00">
        <route edges="-592205278#0 521292051#0 202733867#1 1336816703#0 1336816703#2 1336816703#3 1336816703#4 1426144995#3 421572467#0 421572467#1 421572467#2 421572467#3 421572467#5 579519535 40520540 590614190"/>
    </vehicle>
    <vehicle id="26" depart="52.00">
        <route edges="34882152#4 1318479273#4 215092801 1390278528 -1364120130#1 -1371676929 1340602107 29893132#0 29893132#1 29893132#3 29893132#4 -30341758#2 -30341758#1 30341779#6 8013563#1 30341786#0"/>
    </vehicle>
    <vehicle id="27" depart="54.00">
        <route edges="-38503002#3 -38503002#2 -38503002#1 -38503002#0 1395753715#1 174302480#0 174302480#2 174302480#4 1444483465#0 1444483465#1 1433305208#0 1433305208#1 1444483467 579703667#0 1387286079#0 -202733886 8013558#0 8013558#1 421572444#0 421572444#1 420918538 421572458 421572457 149539155#0 149539155#1 -1454259845#1 1454259858#0 -1454259847 -1454259850 -1371900286 -1371900276 38518223#0 38518223#1 38518223#2 38518223#4 38518214#2 38518220#0"/>
    </vehicle>
    <vehicle id="28" depart="56.00">
        <route edges="-369150394#2 -369150394#1 202733843#9 590874446#0 1428686203 1426257829#0 1426257829#1 1426257831 590874454 739626457 -579703664#5 -579703664#4 184135439#0 1426259223"/>
    </vehicle>
    <vehicle id="29" depart="58.00">
        <route edges="97667893#0 36854120#2 1455343191#0 -36854109#1 -36854109#0 512022439#0 512022439#1 97667897 519657941#2 519657941#5 519657941#6 519657941#8 589340823 1390597371 1390597380#0 1390597381 423702931#0 423702931#2 423702931#3 584930689 1444227371 1371385761#0 1444227374 97667265#0 97667265#1 97667265#2 34882125#0 34882118#2 34882118#3 34882118#4"/>
    </vehicle>
    <vehicle id="30" depart="60.00">
        <route edges="215126985#5 1339182217 -1452997236#1 -421566992#3 -421566992#0 1111202194 1112150720 -1368226769#1 -1368226769#0 -1396120988 -1368343181#0 -1368343180#1 -1368343179 -1396120987 -1368343178#1 -514933199#2 -514933199#0 1316247793#0 1316247793#1 1316247793#2 -1339182206#1 -1339182206#0 -339183558 -1365663323 -1365663322 38517884#5 38517884#13 38517884#20 38517884#28 38517884#31 38517884#32 38517884#33"/>
    </vehicle>
    <vehicle id="31" depart="62.00">
        <route edges="423702931#0 423702931#2 423702931#3 584930689 1444227371 1371385761#0 -1371900278 -1371900281 -1371900280 -1371900284#1 -1371900284#0 -1371900283 -1371900285 1371900276 1371900286 1454259850 1454259847 1454259857#0 1454259845#0 -202733808 -202733838 202733886 1387286080#2 1245413408#0 1245413408#9 1245413408#10 1444483466#0 1444483466#1 1433305207#0 1433305207#1 1444483464 423645199#0 423645199#1 423645199#3 423645199#5 423645199#7 1395753716#0 208443881#0 208443881#1 208443881#2 38706609#3 40520549#0 40520549#1"/>
    </vehicle>
    <vehicle id="32" depart="64.00">
        <route edges="-575587434#1 -575587434#0 1336816703#4 1426144995#3 421572467#0 421572467#1 421572467#2 421572467#3 421572467#5 421572467#6 421572467#7 421572467#8 421572467#10 421572467#11 421572467#12 1446253331#0 421572478 421572488#0 421572488#1 1446253325 203937551 243446016#0 243446016#2 243446016#4 1426161669 1446253321#1 1426161668#0 1426161668#2 1425801143#0 203937566#1 1371900285 1371900283 1371900284#0 1371900284#1 1371900280 1371900281 1371900282 423706666#0 423706666#1 1444227376 1371167863#0 578849577#1 1371167862#0 1371167861 -1371167861"/>
    </vehicle>
    <vehicle id="33" depart="66.00">
        <route edges="1339182210#1 422855908#0 422855908#1 422855908#3 422855908#5 422855908#7 422855908#8 422855908#10 422855908#12 422855908#13 422855908#16 422855910 420918590 420918538 421572458 421572457 149539155#0 149539155#1 -1454259845#1 1454259858#0 -1454259847 -1454259850 97668119#0 97668119#1 1426161668#2 1425801143#0 1425801143#1 1425801143#4 1425801143#5 1452992952 1452992949#0 -30343823#1 -30343823#0 -1390597376#1 -1390597379#0 -590294839#1 -590294839#0 -97669073#1"/>
    </vehicle>
    <vehicle id="34" depart="68.00">
        <route edges="-423706666#1 -423706666#0 -1371385761#0 -1444227371 -584930689 584930690#0 584930690#1 1055765304 1390597378#0 1390597377 423702947 1390597370 1444227384 1452987838#0 1452987838#2 591018056"/>
    </vehicle>
    <vehicle id="35" depart="70.00">
        <route edges="521286929#0 521292052 521286930 1445965799 1445965798 512022437#0 512022437#1 512022437#2 519657941#0 519657941#2 519657941#5 519657941#6 519657941#8 589340823 1390597371 1390597380#0 1390597381 423702931#0 423702931#2 423702931#3 584930689 1444227371 1371385761#0 1444227374 97667265#0 97667265#1 97667265#2 852390144 1326206790#0 1364120130#0 1364120131#0 1364120128#0 1364120127 1364120126#0 1364120124 1452998686 1364120121#1 1368224972 1364120119"/>
    </vehicle>
    <vehicle id="36" depart="72.00">
        <route edges="579579689 36854128#0 -1371385743 -584930688 584930687#0 584930687#1 584930687#2 584930687#3 1390597365 30134990#0 30134990#1 30134990#7 30134990#8 30134990#9 30134990#10 30134990#11 30134990#12 1445965802 421685207#0 590614182#1 420659191#0 420659191#3 515074564#0 174273367#0"/>
    </vehicle>
    <vehicle id="37" depart="74.00">
        <route edges="215664234#0 215664237#1 215664237#2 215664237#3 215664237#4 -29893132#3 -29893132#1 -29893132#0 852390143#0 852390143#2 852390143#3 1444227375#0 -1371900278 -1371900281 -30343824#3 -243446010#1 -243446010#0 -1454149260#1 -1454149260#0 -584022369#5 -584022369#4 -584022369#3 -584022369#2 -584021286#1 -584021286#0 -579522178 -744984905#1"/>
    </vehicle>
    <vehicle id="38" depart="76.00">
        <route edges="248378000#6 248378000#7 1443979366#0 1443979358 1317914963 -215666786#0 -1443979359 590294822 1443979371 1055764967#1 551708627#0 551708627#2 551708627#3 1390597374#0 30134990#0 30134990#1 30134990#7 30134990#8 30134990#9 30134990#10 30134990#11 30134990#12 1445965802 214875512 -583866526#1 -97667890#7 -579522176#0 579407011#9"/>
    </vehicle>
    <vehicle id="39" depart="78.00">
        <route edges="1443979359 215666786#0 -215666786#0 -1443979359 590294822 1443979371 1055764967#1 551708627#0 551708627#2 551708627#3 1390597374#0 589340823 1390597371 1390597380#0 1390597376#1 30343823#0 30343823#1 1444259929 1452992945#0 1452992948 1425801144#0 1425801144#1 1425801144#3 1425801144#5 1425801144#6 1426161673 1426161672#0 1426161672#2 243446015#0 243446015#3 243446015#5 1446253326#0 1446253326#1 421685183 59541091 421572485 423645191 421572447 421572488#0 1446253324 59541063#0 -38518032#2 -579407017#5 -579407017#1 -579407017#0"/>
    </vehicle>
    <vehicle id="40" depart="80.00">
        <route edges="97668334#2 97668334#3 28944192#0 28944192#1 28944196#0 28944196#1 28944196#2 28944196#3 28944196#4 584930687#2 584930687#3 1390597365 589340823 1390597371 1390597380#0 1390597381 423702931#0 423702931#2 423702931#3 584930689 1444227371 1371385761#0 1444227374 97667265#0 97667265#1 97667265#2 852390144 1326206790#0 1364120130#0 -1390278528 -215092801 1318479273#5 1318479273#1 1318479273#2 38518214#0 38518214#1 38518214#2 38518214#3 38518214#4 38518214#5 38518214#6 38518214#7 38518214#8 38518214#9 38518214#10 38518214#11 38518214#12 38518214#13 214485131#0"/>
    </vehicle>
    <vehicle id="41" depart="82.00">
        <route edges="-208443849 38706612#0 38706613#1 591857695 174302480#4 1444483465#0 1444483465#1 1433305208#0 1433305208#1 1444483467 579703667#0 1387286079#0 -202733886 8013558#0 8013558#1 421572444#0 421572444#1 420918538 421572458 421572457 149539155#0 1472573474 149534107 1425801164#0 1425801164#1 1426161670 -1425801163#0"/>
    </vehicle>
    <vehicle id="42" depart="84.00">
        <route edges="-215094431#1 38785078#2 38785078#3 402790040#0 1364120126#0 1364120124 1452998686 -421566992#3 -421566992#0 1111202194 1112150720 -1368226769#1 -1368226769#0 -1396120988 -1368343181#0 -1368343180#1 -1368343179 339220624#0 339220624#3"/>
    </vehicle>
    <vehicle id="43" depart="86.00">
        <route edges="407176689#2 407176689#4 407176689#6 407176689#7 407176689#10 1340602107 852390143#0 852390143#2 852390143#3 1444227375#0 -1371385761#0 -1444227371 -584930689 584930690#0 584930690#1 1055765304 1390597378#0 1390597377 423702947 1390597370 30134990#0 30134990#1 30134990#7 30134990#8 30134990#9 30134990#10 30134990#11 30134990#12 1445965802 1445965797"/>
    </vehicle>
    <vehicle id="44" depart="88.00">
        <route edges="-1444483461#0 -1445679846#1 422855904#6 422855904#8 1446253333#0 421572478 421572488#0 421572488#1 1446253325 203937551 243446016#0 243446016#2 243446016#4 1426161669 1446253321#1 1426161668#0 1426161668#2 1425801143#0 203937566#1 1371900285 1371900283 1371900284#0 38785100 34882152#2 34882152#3 34882152#4 1318479273#4 215092801 1390278528 1390278527 215092803#0 215092803#1 215092803#2 1444259938#1 1444259942#1 38555542#4 143005705#0 143005702#2"/>
    </vehicle>
    <vehicle id="45" depart="90.00">
        <route edges="97668333#2 215666786#8 579499692 583033158#0 28944196#3 28944196#4 584930687#2 584930687#3 1390597365 589340823 1390597371 1390597380#0 1390597381 423702931#0 423702931#2 423702931#3 584930689 1444227371 1371385761#0 1444227374 97667265#0 97667265#1 97667265#2 852390144 1326206790#0 1364120130#0 -1390278528 -215092801 1318479273#5 1318479273#1 1318479273#2 38518214#0 38518214#1 38518214#2 38518214#3 38518214#4 38518214#5 38518214#6 38518214#7 38518214#8 38518214#9 38518214#10 38518214#11 422535850#9 422535850#10 422535850#11 215088625"/>
    </vehicle>
    <vehicle id="46" depart="92.00">
        <route edges="8013558#0 8013558#1 421572444#0 421572444#1 420918538 512509918#0 1446253328#0 1446253328#1 421572485 423645191 421572447 421572488#0 421572488#1 421685204 421685183 1446253327 149539153#0 149539153#1 519371475#0"/>
    </vehicle>
    <vehicle id="47" depart="94.00">
        <route edges="-1328516450#0 -1366709740 514934192#0 215126984#0 242957986#0 1368340729#0 520401065#0 520401065#2 520401065#3 -1384176976#2 38518215#0 38518215#1"/>
    </vehicle>
    <vehicle id="48" depart="96.00">
        <route edges="38503002#2 38503002#3 -38503002#3 -38503002#2 -38503002#1 -38503002#0 1395753715#1 174302480#0 174302480#2 174302480#4 1444483465#0 1444483465#1 1433305208#0 1433305208#1 1444483467 579703667#0 1387286079#0 -202733886 8013558#0 8013558#1 421572444#0 421572444#1 420918538 421572458 421572457 149539155#0 149539155#1 -1454259845#1 1454259858#0 -1454259847 -1454259850 -1371900286 -1371900276 1371900285 1371900283 1371900284#0 38785100 34882152#2 34882152#3 34882152#4 1318479273#4 1318479273#5 579211958#0 38785078#0 215094431#0 215094429#0"/>
    </vehicle>
    <vehicle id="49" depart="98.00">
        <route edges="-592205278#0 521292051#0 110470498#1 110470498#4 110470498#5 420659192 521286930 1445965799 1445965798 512022437#0 512022437#1 512022437#2 519657941#0 519657941#2 519657941#5 519657941#6 519657941#8 589340823 1390597371 1390597380#0 1390597381 423702931#0 423702931#2 423702931#3 584930689 1444227371 1371385761#0 1444227374 97667265#0 97667265#1 97667265#2 34882125#0 34882125#1"/>
    </vehicle>
    <vehicle id="50" depart="100.00">
        <route edges="-215666786#2 -215666786#0 -1443979359 590294822 1443979371 1055764967#1 551708627#0 551708627#2 551708627#3 1390597374#0 589340823 1390597371 1390597380#0 1390597381 423702931#0 423702931#2 423702931#3 584930689 -30343829#3 -30343829#0 -1371248075#1 -1371248075#0 1452992946"/>
    </vehicle>
    <vehicle id="51" depart="102.00">
        <route edges="1454259846#4 420918583 422855901 422855910 420918590 420918538 512509918#0 1446253328#0 1446253328#1 421572485 423645191 421572447 421572488#0 1446253324 59541063#0 59541063#1 59541063#4 59541063#7 59541063#8"/>
    </vehicle>
    <vehicle id="52" depart="104.00">
        <route edges="520730557#0 149539175#0 149539175#1 421572444#0 421572444#1 420918538 512509918#0 1446253328#0 1446253328#1 421572485 423645191 38704977 1446253330 202733874#0 202733874#1 202733874#2 202733874#4 202733874#6 202733874#7 1426144995#5 202733818#0 208443863#1 -908405461"/>
    </vehicle>
    <vehicle id="53" depart="106.00">
        <route edges="202733872#1 420153857#0 421572467#1 421572467#2 421572467#3 421572467#5 421572467#6 421572467#7 421572467#8 421572467#10 421572467#11 421572467#12 1446253331#0 421572478 421572488#0 421572488#1 421685204 421685183 59541091 421572485 -1446253329#1 -1446253329#0 -59541097#2 -59541097#0 -1444483456#1 -1444483456#0 -1444483457 -1443938591#2 1245413408#0 1245413408#9 -40520543"/>
    </vehicle>
    <vehicle id="54" depart="108.00">
        <route edges="579541518#0 -579541518#1 591857695 174302480#4 1444483465#0 1444483465#1 1433305208#0 1433305208#1 1433305206 1433305207#0 -1444483463#1 -1444483463#0 -214485139#1 -214485139#0 -1444483470#1 -1444483470#0 1347892938#1 1444483471#0 1444483471#1 338675698#0 338675698#2 338675698#3 338675698#5 338675698#7 338675698#10 338675698#11 520730557#0"/>
    </vehicle>
    <vehicle id="55" depart="110.00">
        <route edges="1318474990#2 38518220#0 38518220#1 38518220#2 97667270#0 97667270#1 34882025 34882152#2 34882128 34882118#1 34882118#2"/>
    </vehicle>
    <vehicle id="56" depart="112.00">
        <route edges="30134990#8 30134990#9 30134990#10 30134990#11 30134990#12 1445965802 -1055798628 -514424287#7 -514424287#6 -514424287#5 -514424287#4 -514424287#3 -514424287#2 -514424287#1 -514424287#0 -1319248246 421685182#0 519371475#0 519371475#1 421572457 149539147 420918583 422855901 422855910 149539158 1445341540#0 421572469#0 421572469#1 -520730557#2 -338675698#13 -338675698#10 -338675698#9 -338675698#6 -214485138#1 -214485138#0 -575575265 -38517885#0"/>
    </vehicle>
    <vehicle id="57" depart="114.00">
        <route edges="38785072#2 -1371367095#1 -1390278530 -1364120126#1 -1364120127 -1364120128#1 38785078#0 215094431#0 215094431#2"/>
    </vehicle>
    <vehicle id="58" depart="116.00">
        <route edges="40520536#0 579541515#4 38706602#0 1444546057 -1444546055#0 -1444546056#1 -214485591#0 -1444483461#1 -1444483461#0 -1445679846#1 422855904#6 422855904#8 1446253333#0 421572478 421572488#0 421572488#1 1446253325 203937551 243446016#0 243446016#2 243446016#4 1426161669 -1425801163#0 -1426161671 174297822#0 38518216#0 38518216#2 257513285#1 215090994#0"/>
    </vehicle>
    <vehicle id="59" depart="118.00">
        <route edges="-1057819147 339220629#7 1454259846#0 1454259846#1 1454259846#2 1454259846#3 1454259846#4 420918583 149539151#0 149539151#2 149539151#4 149539151#6 149539151#7 149539151#8 149539151#9 149539151#11 1316247792 1339182211#0 1339182211#1 1316247797 1316247793#0 1316247793#1 1316247793#2 -1339182206#1 -1339182206#0 -339183558 -1365663323 1368230240#0"/>
    </vehicle>
    <vehicle id="60" depart="120.00">
        <route edges="-1347892955 -1347892956 1347892956 1347892955 1347892954 1347892952 1347892943 1444483469 1347892942#0 1347892942#1 1347892938#0 1444483470#0 1444483470#1 214485139#0 214485139#1 1444483463#0 1444483463#1 1433305207#1 1245413406 1433305208#0 1433305208#1 1444483467 579703667#0 1443938591#2 1444483457 1444483456#0 1444483456#1 59541097#0 59541097#1 1446253329#0 1446253329#1 423645191 421572447 421572488#0 421572488#1 1446253325 203937551 730256156 514424287#0 514424287#1 514424287#2 514424287#3 514424287#4 514424287#5 514424287#6 36363785 97667889#2 -214875505#1 -214875505#0 589938799"/>
    </vehicle>
    <vehicle id="61" depart="122.00">
        <route edges="521545598 97668127#5 97668127#1 -589938800#1 -589938800#0 -1454149259 -579513653#5 -579513653#2 -1425801163#0 -1426161671 174297822#0 1454259857#0 1454259845#0 250426638 1454259846#0 1454259846#1 1454259846#2 1454259846#3 1454259846#4 420918583 422855901 422855910 149539158 1445341540#0 421572469#0 1390942777 38518014#0 38518014#1 38785118#3 38785118#6 422855908#7 422855908#8 422855908#10"/>
    </vehicle>
    <vehicle id="62" depart="124.00">
        <route edges="1336816702#2 421572464#1 421572464#2 208443836 -208443856#0 202733843#1 202733843#2 202733843#3 202733843#9 590874446#0 1428686203 1426257829#0 1426257829#1 1426257831 590874454 739626457 -579703664#5 -579703664#4 -579703664#1 -579703664#0 -1453810094#1 1453810092#2 1453810092#3 -1444474425#1 -1444483468#1 -1444483468#0 1433305208#1 1433305206 1433305207#0 -1444483463#1 -1444483463#0 -214485139#1 -214485139#0 -1444483470#1 -1444483470#0"/>
    </vehicle>
    <vehicle id="63" depart="126.00">
        <route edges="521292052 521286930 1445965799 421685207#0 590614182#1 420659191#0 420659191#3 515074564#0 515074564#1 515074564#3 -521292051#1 592205278#0 592205278#1 592205278#2 592205278#3"/>
    </vehicle>
    <vehicle id="64" depart="128.00">
        <route edges="-184147174 -38503002#0 1395753715#1 174302480#0 174302480#2 174302480#4 1444483465#0 1444483465#1 1433305208#0 1444483468#0 1444483468#1 1444474425#0 1453810092#4 1453810092#1 1453810094#0 1453810094#2 579703664#1 579703664#3 579703664#5 -739626457 739626459 1426257832 1426257829#3 1427954611 1428686203 1426257825 590874441 40520538#0 202733874#6 -420153849#1 202733872#4"/>
    </vehicle>
    <vehicle id="65" depart="130.00">